.subckt user_analog_project_wrapper vdda1 vdda2 vssa1 vssa2 vccd1 vccd2 vssd1 vssd2 wb_clk_i
+ wb_rst_i wbs_stb_i wbs_cyc_i wbs_we_i wbs_sel_i[3] wbs_sel_i[2] wbs_sel_i[1] wbs_sel_i[0] wbs_dat_i[31]
+ wbs_dat_i[30] wbs_dat_i[29] wbs_dat_i[28] wbs_dat_i[27] wbs_dat_i[26] wbs_dat_i[25] wbs_dat_i[24] wbs_dat_i[23]
+ wbs_dat_i[22] wbs_dat_i[21] wbs_dat_i[20] wbs_dat_i[19] wbs_dat_i[18] wbs_dat_i[17] wbs_dat_i[16] wbs_dat_i[15]
+ wbs_dat_i[14] wbs_dat_i[13] wbs_dat_i[12] wbs_dat_i[11] wbs_dat_i[10] wbs_dat_i[9] wbs_dat_i[8] wbs_dat_i[7]
+ wbs_dat_i[6] wbs_dat_i[5] wbs_dat_i[4] wbs_dat_i[3] wbs_dat_i[2] wbs_dat_i[1] wbs_dat_i[0] wbs_adr_i[31]
+ wbs_adr_i[30] wbs_adr_i[29] wbs_adr_i[28] wbs_adr_i[27] wbs_adr_i[26] wbs_adr_i[25] wbs_adr_i[24] wbs_adr_i[23]
+ wbs_adr_i[22] wbs_adr_i[21] wbs_adr_i[20] wbs_adr_i[19] wbs_adr_i[18] wbs_adr_i[17] wbs_adr_i[16] wbs_adr_i[15]
+ wbs_adr_i[14] wbs_adr_i[13] wbs_adr_i[12] wbs_adr_i[11] wbs_adr_i[10] wbs_adr_i[9] wbs_adr_i[8] wbs_adr_i[7]
+ wbs_adr_i[6] wbs_adr_i[5] wbs_adr_i[4] wbs_adr_i[3] wbs_adr_i[2] wbs_adr_i[1] wbs_adr_i[0] wbs_ack_o
+ wbs_dat_o[31] wbs_dat_o[30] wbs_dat_o[29] wbs_dat_o[28] wbs_dat_o[27] wbs_dat_o[26] wbs_dat_o[25] wbs_dat_o[24]
+ wbs_dat_o[23] wbs_dat_o[22] wbs_dat_o[21] wbs_dat_o[20] wbs_dat_o[19] wbs_dat_o[18] wbs_dat_o[17] wbs_dat_o[16]
+ wbs_dat_o[15] wbs_dat_o[14] wbs_dat_o[13] wbs_dat_o[12] wbs_dat_o[11] wbs_dat_o[10] wbs_dat_o[9] wbs_dat_o[8]
+ wbs_dat_o[7] wbs_dat_o[6] wbs_dat_o[5] wbs_dat_o[4] wbs_dat_o[3] wbs_dat_o[2] wbs_dat_o[1] wbs_dat_o[0]
+ la_data_in[127] la_data_in[126] la_data_in[125] la_data_in[124] la_data_in[123] la_data_in[122] la_data_in[121]
+ la_data_in[120] la_data_in[119] la_data_in[118] la_data_in[117] la_data_in[116] la_data_in[115] la_data_in[114]
+ la_data_in[113] la_data_in[112] la_data_in[111] la_data_in[110] la_data_in[109] la_data_in[108] la_data_in[107]
+ la_data_in[106] la_data_in[105] la_data_in[104] la_data_in[103] la_data_in[102] la_data_in[101] la_data_in[100]
+ la_data_in[99] la_data_in[98] la_data_in[97] la_data_in[96] la_data_in[95] la_data_in[94] la_data_in[93]
+ la_data_in[92] la_data_in[91] la_data_in[90] la_data_in[89] la_data_in[88] la_data_in[87] la_data_in[86]
+ la_data_in[85] la_data_in[84] la_data_in[83] la_data_in[82] la_data_in[81] la_data_in[80] la_data_in[79]
+ la_data_in[78] la_data_in[77] la_data_in[76] la_data_in[75] la_data_in[74] la_data_in[73] la_data_in[72]
+ la_data_in[71] la_data_in[70] la_data_in[69] la_data_in[68] la_data_in[67] la_data_in[66] la_data_in[65]
+ la_data_in[64] la_data_in[63] la_data_in[62] la_data_in[61] la_data_in[60] la_data_in[59] la_data_in[58]
+ la_data_in[57] la_data_in[56] la_data_in[55] la_data_in[54] la_data_in[53] la_data_in[52] la_data_in[51]
+ la_data_in[50] la_data_in[49] la_data_in[48] la_data_in[47] la_data_in[46] la_data_in[45] la_data_in[44]
+ la_data_in[43] la_data_in[42] la_data_in[41] la_data_in[40] la_data_in[39] la_data_in[38] la_data_in[37]
+ la_data_in[36] la_data_in[35] la_data_in[34] la_data_in[33] la_data_in[32] la_data_in[31] la_data_in[30]
+ la_data_in[29] la_data_in[28] la_data_in[27] la_data_in[26] la_data_in[25] la_data_in[24] la_data_in[23]
+ la_data_in[22] la_data_in[21] la_data_in[20] la_data_in[19] la_data_in[18] la_data_in[17] la_data_in[16]
+ la_data_in[15] la_data_in[14] la_data_in[13] la_data_in[12] la_data_in[11] la_data_in[10] la_data_in[9]
+ la_data_in[8] la_data_in[7] la_data_in[6] la_data_in[5] la_data_in[4] la_data_in[3] la_data_in[2] la_data_in[1]
+ la_data_in[0] la_data_out[127] la_data_out[126] la_data_out[125] la_data_out[124] la_data_out[123]
+ la_data_out[122] la_data_out[121] la_data_out[120] la_data_out[119] la_data_out[118] la_data_out[117]
+ la_data_out[116] la_data_out[115] la_data_out[114] la_data_out[113] la_data_out[112] la_data_out[111]
+ la_data_out[110] la_data_out[109] la_data_out[108] la_data_out[107] la_data_out[106] la_data_out[105]
+ la_data_out[104] la_data_out[103] la_data_out[102] la_data_out[101] la_data_out[100] la_data_out[99] la_data_out[98]
+ la_data_out[97] la_data_out[96] la_data_out[95] la_data_out[94] la_data_out[93] la_data_out[92] la_data_out[91]
+ la_data_out[90] la_data_out[89] la_data_out[88] la_data_out[87] la_data_out[86] la_data_out[85] la_data_out[84]
+ la_data_out[83] la_data_out[82] la_data_out[81] la_data_out[80] la_data_out[79] la_data_out[78] la_data_out[77]
+ la_data_out[76] la_data_out[75] la_data_out[74] la_data_out[73] la_data_out[72] la_data_out[71] la_data_out[70]
+ la_data_out[69] la_data_out[68] la_data_out[67] la_data_out[66] la_data_out[65] la_data_out[64] la_data_out[63]
+ la_data_out[62] la_data_out[61] la_data_out[60] la_data_out[59] la_data_out[58] la_data_out[57] la_data_out[56]
+ la_data_out[55] la_data_out[54] la_data_out[53] la_data_out[52] la_data_out[51] la_data_out[50] la_data_out[49]
+ la_data_out[48] la_data_out[47] la_data_out[46] la_data_out[45] la_data_out[44] la_data_out[43] la_data_out[42]
+ la_data_out[41] la_data_out[40] la_data_out[39] la_data_out[38] la_data_out[37] la_data_out[36] la_data_out[35]
+ la_data_out[34] la_data_out[33] la_data_out[32] la_data_out[31] la_data_out[30] la_data_out[29] la_data_out[28]
+ la_data_out[27] la_data_out[26] la_data_out[25] la_data_out[24] la_data_out[23] la_data_out[22] la_data_out[21]
+ la_data_out[20] la_data_out[19] la_data_out[18] la_data_out[17] la_data_out[16] la_data_out[15] la_data_out[14]
+ la_data_out[13] la_data_out[12] la_data_out[11] la_data_out[10] la_data_out[9] la_data_out[8] la_data_out[7]
+ la_data_out[6] la_data_out[5] la_data_out[4] la_data_out[3] la_data_out[2] la_data_out[1] la_data_out[0] io_in[26]
+ io_in[25] io_in[24] io_in[23] io_in[22] io_in[21] io_in[20] io_in[19] io_in[18] io_in[17] io_in[16] io_in[15]
+ io_in[14] io_in[13] io_in[12] io_in[11] io_in[10] io_in[9] io_in[8] io_in[7] io_in[6] io_in[5] io_in[4]
+ io_in[3] io_in[2] io_in[1] io_in[0] io_in_3v3[26] io_in_3v3[25] io_in_3v3[24] io_in_3v3[23] io_in_3v3[22]
+ io_in_3v3[21] io_in_3v3[20] io_in_3v3[19] io_in_3v3[18] io_in_3v3[17] io_in_3v3[16] io_in_3v3[15] io_in_3v3[14]
+ io_in_3v3[13] io_in_3v3[12] io_in_3v3[11] io_in_3v3[10] io_in_3v3[9] io_in_3v3[8] io_in_3v3[7] io_in_3v3[6]
+ io_in_3v3[5] io_in_3v3[4] io_in_3v3[3] io_in_3v3[2] io_in_3v3[1] io_in_3v3[0] user_clock2 io_out[26] io_out[25]
+ io_out[24] io_out[23] io_out[22] io_out[21] io_out[20] io_out[19] io_out[18] io_out[17] io_out[16] io_out[15]
+ io_out[14] io_out[13] io_out[12] io_out[11] io_out[10] io_out[9] io_out[8] io_out[7] io_out[6] io_out[5]
+ io_out[4] io_out[3] io_out[2] io_out[1] io_out[0] io_oeb[26] io_oeb[25] io_oeb[24] io_oeb[23] io_oeb[22]
+ io_oeb[21] io_oeb[20] io_oeb[19] io_oeb[18] io_oeb[17] io_oeb[16] io_oeb[15] io_oeb[14] io_oeb[13] io_oeb[12]
+ io_oeb[11] io_oeb[10] io_oeb[9] io_oeb[8] io_oeb[7] io_oeb[6] io_oeb[5] io_oeb[4] io_oeb[3] io_oeb[2]
+ io_oeb[1] io_oeb[0] gpio_analog[17] gpio_analog[16] gpio_analog[15] gpio_analog[14] gpio_analog[13]
+ gpio_analog[12] gpio_analog[11] gpio_analog[10] gpio_analog[9] gpio_analog[8] gpio_analog[7] gpio_analog[6]
+ gpio_analog[5] gpio_analog[4] gpio_analog[3] gpio_analog[2] gpio_analog[1] gpio_analog[0] gpio_noesd[17]
+ gpio_noesd[16] gpio_noesd[15] gpio_noesd[14] gpio_noesd[13] gpio_noesd[12] gpio_noesd[11] gpio_noesd[10]
+ gpio_noesd[9] gpio_noesd[8] gpio_noesd[7] gpio_noesd[6] gpio_noesd[5] gpio_noesd[4] gpio_noesd[3] gpio_noesd[2]
+ gpio_noesd[1] gpio_noesd[0] io_analog[10] io_analog[9] io_analog[8] io_analog[7] io_analog[6] io_analog[5]
+ io_analog[4] io_analog[3] io_analog[2] io_analog[1] io_analog[0] io_clamp_high[2] io_clamp_high[1]
+ io_clamp_high[0] io_clamp_low[2] io_clamp_low[1] io_clamp_low[0] user_irq[2] user_irq[1] user_irq[0] la_oenb[127]
+ la_oenb[126] la_oenb[125] la_oenb[124] la_oenb[123] la_oenb[122] la_oenb[121] la_oenb[120] la_oenb[119]
+ la_oenb[118] la_oenb[117] la_oenb[116] la_oenb[115] la_oenb[114] la_oenb[113] la_oenb[112] la_oenb[111]
+ la_oenb[110] la_oenb[109] la_oenb[108] la_oenb[107] la_oenb[106] la_oenb[105] la_oenb[104] la_oenb[103]
+ la_oenb[102] la_oenb[101] la_oenb[100] la_oenb[99] la_oenb[98] la_oenb[97] la_oenb[96] la_oenb[95] la_oenb[94]
+ la_oenb[93] la_oenb[92] la_oenb[91] la_oenb[90] la_oenb[89] la_oenb[88] la_oenb[87] la_oenb[86] la_oenb[85]
+ la_oenb[84] la_oenb[83] la_oenb[82] la_oenb[81] la_oenb[80] la_oenb[79] la_oenb[78] la_oenb[77] la_oenb[76]
+ la_oenb[75] la_oenb[74] la_oenb[73] la_oenb[72] la_oenb[71] la_oenb[70] la_oenb[69] la_oenb[68] la_oenb[67]
+ la_oenb[66] la_oenb[65] la_oenb[64] la_oenb[63] la_oenb[62] la_oenb[61] la_oenb[60] la_oenb[59] la_oenb[58]
+ la_oenb[57] la_oenb[56] la_oenb[55] la_oenb[54] la_oenb[53] la_oenb[52] la_oenb[51] la_oenb[50] la_oenb[49]
+ la_oenb[48] la_oenb[47] la_oenb[46] la_oenb[45] la_oenb[44] la_oenb[43] la_oenb[42] la_oenb[41] la_oenb[40]
+ la_oenb[39] la_oenb[38] la_oenb[37] la_oenb[36] la_oenb[35] la_oenb[34] la_oenb[33] la_oenb[32] la_oenb[31]
+ la_oenb[30] la_oenb[29] la_oenb[28] la_oenb[27] la_oenb[26] la_oenb[25] la_oenb[24] la_oenb[23] la_oenb[22]
+ la_oenb[21] la_oenb[20] la_oenb[19] la_oenb[18] la_oenb[17] la_oenb[16] la_oenb[15] la_oenb[14] la_oenb[13]
+ la_oenb[12] la_oenb[11] la_oenb[10] la_oenb[9] la_oenb[8] la_oenb[7] la_oenb[6] la_oenb[5] la_oenb[4]
+ la_oenb[3] la_oenb[2] la_oenb[1] la_oenb[0]
*.iopin vdda1
*.iopin vdda2
*.iopin vssa1
*.iopin vssa2
*.iopin vccd1
*.iopin vccd2
*.iopin vssd1
*.iopin vssd2
*.ipin wb_clk_i
*.ipin wb_rst_i
*.ipin wbs_stb_i
*.ipin wbs_cyc_i
*.ipin wbs_we_i
*.ipin wbs_sel_i[3],wbs_sel_i[2],wbs_sel_i[1],wbs_sel_i[0]
*.ipin
*+ wbs_dat_i[31],wbs_dat_i[30],wbs_dat_i[29],wbs_dat_i[28],wbs_dat_i[27],wbs_dat_i[26],wbs_dat_i[25],wbs_dat_i[24],wbs_dat_i[23],wbs_dat_i[22],wbs_dat_i[21],wbs_dat_i[20],wbs_dat_i[19],wbs_dat_i[18],wbs_dat_i[17],wbs_dat_i[16],wbs_dat_i[15],wbs_dat_i[14],wbs_dat_i[13],wbs_dat_i[12],wbs_dat_i[11],wbs_dat_i[10],wbs_dat_i[9],wbs_dat_i[8],wbs_dat_i[7],wbs_dat_i[6],wbs_dat_i[5],wbs_dat_i[4],wbs_dat_i[3],wbs_dat_i[2],wbs_dat_i[1],wbs_dat_i[0]
*.ipin
*+ wbs_adr_i[31],wbs_adr_i[30],wbs_adr_i[29],wbs_adr_i[28],wbs_adr_i[27],wbs_adr_i[26],wbs_adr_i[25],wbs_adr_i[24],wbs_adr_i[23],wbs_adr_i[22],wbs_adr_i[21],wbs_adr_i[20],wbs_adr_i[19],wbs_adr_i[18],wbs_adr_i[17],wbs_adr_i[16],wbs_adr_i[15],wbs_adr_i[14],wbs_adr_i[13],wbs_adr_i[12],wbs_adr_i[11],wbs_adr_i[10],wbs_adr_i[9],wbs_adr_i[8],wbs_adr_i[7],wbs_adr_i[6],wbs_adr_i[5],wbs_adr_i[4],wbs_adr_i[3],wbs_adr_i[2],wbs_adr_i[1],wbs_adr_i[0]
*.opin wbs_ack_o
*.opin
*+ wbs_dat_o[31],wbs_dat_o[30],wbs_dat_o[29],wbs_dat_o[28],wbs_dat_o[27],wbs_dat_o[26],wbs_dat_o[25],wbs_dat_o[24],wbs_dat_o[23],wbs_dat_o[22],wbs_dat_o[21],wbs_dat_o[20],wbs_dat_o[19],wbs_dat_o[18],wbs_dat_o[17],wbs_dat_o[16],wbs_dat_o[15],wbs_dat_o[14],wbs_dat_o[13],wbs_dat_o[12],wbs_dat_o[11],wbs_dat_o[10],wbs_dat_o[9],wbs_dat_o[8],wbs_dat_o[7],wbs_dat_o[6],wbs_dat_o[5],wbs_dat_o[4],wbs_dat_o[3],wbs_dat_o[2],wbs_dat_o[1],wbs_dat_o[0]
*.ipin
*+ la_data_in[127],la_data_in[126],la_data_in[125],la_data_in[124],la_data_in[123],la_data_in[122],la_data_in[121],la_data_in[120],la_data_in[119],la_data_in[118],la_data_in[117],la_data_in[116],la_data_in[115],la_data_in[114],la_data_in[113],la_data_in[112],la_data_in[111],la_data_in[110],la_data_in[109],la_data_in[108],la_data_in[107],la_data_in[106],la_data_in[105],la_data_in[104],la_data_in[103],la_data_in[102],la_data_in[101],la_data_in[100],la_data_in[99],la_data_in[98],la_data_in[97],la_data_in[96],la_data_in[95],la_data_in[94],la_data_in[93],la_data_in[92],la_data_in[91],la_data_in[90],la_data_in[89],la_data_in[88],la_data_in[87],la_data_in[86],la_data_in[85],la_data_in[84],la_data_in[83],la_data_in[82],la_data_in[81],la_data_in[80],la_data_in[79],la_data_in[78],la_data_in[77],la_data_in[76],la_data_in[75],la_data_in[74],la_data_in[73],la_data_in[72],la_data_in[71],la_data_in[70],la_data_in[69],la_data_in[68],la_data_in[67],la_data_in[66],la_data_in[65],la_data_in[64],la_data_in[63],la_data_in[62],la_data_in[61],la_data_in[60],la_data_in[59],la_data_in[58],la_data_in[57],la_data_in[56],la_data_in[55],la_data_in[54],la_data_in[53],la_data_in[52],la_data_in[51],la_data_in[50],la_data_in[49],la_data_in[48],la_data_in[47],la_data_in[46],la_data_in[45],la_data_in[44],la_data_in[43],la_data_in[42],la_data_in[41],la_data_in[40],la_data_in[39],la_data_in[38],la_data_in[37],la_data_in[36],la_data_in[35],la_data_in[34],la_data_in[33],la_data_in[32],la_data_in[31],la_data_in[30],la_data_in[29],la_data_in[28],la_data_in[27],la_data_in[26],la_data_in[25],la_data_in[24],la_data_in[23],la_data_in[22],la_data_in[21],la_data_in[20],la_data_in[19],la_data_in[18],la_data_in[17],la_data_in[16],la_data_in[15],la_data_in[14],la_data_in[13],la_data_in[12],la_data_in[11],la_data_in[10],la_data_in[9],la_data_in[8],la_data_in[7],la_data_in[6],la_data_in[5],la_data_in[4],la_data_in[3],la_data_in[2],la_data_in[1],la_data_in[0]
*.opin
*+ la_data_out[127],la_data_out[126],la_data_out[125],la_data_out[124],la_data_out[123],la_data_out[122],la_data_out[121],la_data_out[120],la_data_out[119],la_data_out[118],la_data_out[117],la_data_out[116],la_data_out[115],la_data_out[114],la_data_out[113],la_data_out[112],la_data_out[111],la_data_out[110],la_data_out[109],la_data_out[108],la_data_out[107],la_data_out[106],la_data_out[105],la_data_out[104],la_data_out[103],la_data_out[102],la_data_out[101],la_data_out[100],la_data_out[99],la_data_out[98],la_data_out[97],la_data_out[96],la_data_out[95],la_data_out[94],la_data_out[93],la_data_out[92],la_data_out[91],la_data_out[90],la_data_out[89],la_data_out[88],la_data_out[87],la_data_out[86],la_data_out[85],la_data_out[84],la_data_out[83],la_data_out[82],la_data_out[81],la_data_out[80],la_data_out[79],la_data_out[78],la_data_out[77],la_data_out[76],la_data_out[75],la_data_out[74],la_data_out[73],la_data_out[72],la_data_out[71],la_data_out[70],la_data_out[69],la_data_out[68],la_data_out[67],la_data_out[66],la_data_out[65],la_data_out[64],la_data_out[63],la_data_out[62],la_data_out[61],la_data_out[60],la_data_out[59],la_data_out[58],la_data_out[57],la_data_out[56],la_data_out[55],la_data_out[54],la_data_out[53],la_data_out[52],la_data_out[51],la_data_out[50],la_data_out[49],la_data_out[48],la_data_out[47],la_data_out[46],la_data_out[45],la_data_out[44],la_data_out[43],la_data_out[42],la_data_out[41],la_data_out[40],la_data_out[39],la_data_out[38],la_data_out[37],la_data_out[36],la_data_out[35],la_data_out[34],la_data_out[33],la_data_out[32],la_data_out[31],la_data_out[30],la_data_out[29],la_data_out[28],la_data_out[27],la_data_out[26],la_data_out[25],la_data_out[24],la_data_out[23],la_data_out[22],la_data_out[21],la_data_out[20],la_data_out[19],la_data_out[18],la_data_out[17],la_data_out[16],la_data_out[15],la_data_out[14],la_data_out[13],la_data_out[12],la_data_out[11],la_data_out[10],la_data_out[9],la_data_out[8],la_data_out[7],la_data_out[6],la_data_out[5],la_data_out[4],la_data_out[3],la_data_out[2],la_data_out[1],la_data_out[0]
*.ipin
*+ io_in[26],io_in[25],io_in[24],io_in[23],io_in[22],io_in[21],io_in[20],io_in[19],io_in[18],io_in[17],io_in[16],io_in[15],io_in[14],io_in[13],io_in[12],io_in[11],io_in[10],io_in[9],io_in[8],io_in[7],io_in[6],io_in[5],io_in[4],io_in[3],io_in[2],io_in[1],io_in[0]
*.ipin
*+ io_in_3v3[26],io_in_3v3[25],io_in_3v3[24],io_in_3v3[23],io_in_3v3[22],io_in_3v3[21],io_in_3v3[20],io_in_3v3[19],io_in_3v3[18],io_in_3v3[17],io_in_3v3[16],io_in_3v3[15],io_in_3v3[14],io_in_3v3[13],io_in_3v3[12],io_in_3v3[11],io_in_3v3[10],io_in_3v3[9],io_in_3v3[8],io_in_3v3[7],io_in_3v3[6],io_in_3v3[5],io_in_3v3[4],io_in_3v3[3],io_in_3v3[2],io_in_3v3[1],io_in_3v3[0]
*.ipin user_clock2
*.opin
*+ io_out[26],io_out[25],io_out[24],io_out[23],io_out[22],io_out[21],io_out[20],io_out[19],io_out[18],io_out[17],io_out[16],io_out[15],io_out[14],io_out[13],io_out[12],io_out[11],io_out[10],io_out[9],io_out[8],io_out[7],io_out[6],io_out[5],io_out[4],io_out[3],io_out[2],io_out[1],io_out[0]
*.opin
*+ io_oeb[26],io_oeb[25],io_oeb[24],io_oeb[23],io_oeb[22],io_oeb[21],io_oeb[20],io_oeb[19],io_oeb[18],io_oeb[17],io_oeb[16],io_oeb[15],io_oeb[14],io_oeb[13],io_oeb[12],io_oeb[11],io_oeb[10],io_oeb[9],io_oeb[8],io_oeb[7],io_oeb[6],io_oeb[5],io_oeb[4],io_oeb[3],io_oeb[2],io_oeb[1],io_oeb[0]
*.iopin
*+ gpio_analog[17],gpio_analog[16],gpio_analog[15],gpio_analog[14],gpio_analog[13],gpio_analog[12],gpio_analog[11],gpio_analog[10],gpio_analog[9],gpio_analog[8],gpio_analog[7],gpio_analog[6],gpio_analog[5],gpio_analog[4],gpio_analog[3],gpio_analog[2],gpio_analog[1],gpio_analog[0]
*.iopin
*+ gpio_noesd[17],gpio_noesd[16],gpio_noesd[15],gpio_noesd[14],gpio_noesd[13],gpio_noesd[12],gpio_noesd[11],gpio_noesd[10],gpio_noesd[9],gpio_noesd[8],gpio_noesd[7],gpio_noesd[6],gpio_noesd[5],gpio_noesd[4],gpio_noesd[3],gpio_noesd[2],gpio_noesd[1],gpio_noesd[0]
*.iopin
*+ io_analog[10],io_analog[9],io_analog[8],io_analog[7],io_analog[6],io_analog[5],io_analog[4],io_analog[3],io_analog[2],io_analog[1],io_analog[0]
*.iopin io_clamp_high[2],io_clamp_high[1],io_clamp_high[0]
*.iopin io_clamp_low[2],io_clamp_low[1],io_clamp_low[0]
*.opin user_irq[2],user_irq[1],user_irq[0]
*.ipin
*+ la_oenb[127],la_oenb[126],la_oenb[125],la_oenb[124],la_oenb[123],la_oenb[122],la_oenb[121],la_oenb[120],la_oenb[119],la_oenb[118],la_oenb[117],la_oenb[116],la_oenb[115],la_oenb[114],la_oenb[113],la_oenb[112],la_oenb[111],la_oenb[110],la_oenb[109],la_oenb[108],la_oenb[107],la_oenb[106],la_oenb[105],la_oenb[104],la_oenb[103],la_oenb[102],la_oenb[101],la_oenb[100],la_oenb[99],la_oenb[98],la_oenb[97],la_oenb[96],la_oenb[95],la_oenb[94],la_oenb[93],la_oenb[92],la_oenb[91],la_oenb[90],la_oenb[89],la_oenb[88],la_oenb[87],la_oenb[86],la_oenb[85],la_oenb[84],la_oenb[83],la_oenb[82],la_oenb[81],la_oenb[80],la_oenb[79],la_oenb[78],la_oenb[77],la_oenb[76],la_oenb[75],la_oenb[74],la_oenb[73],la_oenb[72],la_oenb[71],la_oenb[70],la_oenb[69],la_oenb[68],la_oenb[67],la_oenb[66],la_oenb[65],la_oenb[64],la_oenb[63],la_oenb[62],la_oenb[61],la_oenb[60],la_oenb[59],la_oenb[58],la_oenb[57],la_oenb[56],la_oenb[55],la_oenb[54],la_oenb[53],la_oenb[52],la_oenb[51],la_oenb[50],la_oenb[49],la_oenb[48],la_oenb[47],la_oenb[46],la_oenb[45],la_oenb[44],la_oenb[43],la_oenb[42],la_oenb[41],la_oenb[40],la_oenb[39],la_oenb[38],la_oenb[37],la_oenb[36],la_oenb[35],la_oenb[34],la_oenb[33],la_oenb[32],la_oenb[31],la_oenb[30],la_oenb[29],la_oenb[28],la_oenb[27],la_oenb[26],la_oenb[25],la_oenb[24],la_oenb[23],la_oenb[22],la_oenb[21],la_oenb[20],la_oenb[19],la_oenb[18],la_oenb[17],la_oenb[16],la_oenb[15],la_oenb[14],la_oenb[13],la_oenb[12],la_oenb[11],la_oenb[10],la_oenb[9],la_oenb[8],la_oenb[7],la_oenb[6],la_oenb[5],la_oenb[4],la_oenb[3],la_oenb[2],la_oenb[1],la_oenb[0]
x1 cycle_end gpio_analog[17] gpio_analog[10] gpio_analog[16] gpio_analog[15] overcurrent SENSE_FET
+ SENSE_FET_KELVIN SW_NODE_ESD TIMEOUT_OUT gpio_analog[11] vdda2 gpio_analog[13] gpio_analog[12] vssa2
+ analog_subsystem
x2 cycle_end N_IN N_IN_N io_in_3v3[8] io_in_3v3[10] io_in_3v3[14] overcurrent P_IN P_IN_N
+ io_in_3v3[9] io_in_3v3[11] io_in_3v3[13] io_in_3v3[12] io_in_3v3[16] timeout_int TIMEOUT_OUT io_in_3v3[15] vdda2
+ vssa2 switch_control
x3 N_IN N_IN_N P_IN P_IN_N SENSE_FET SENSE_FET_KELVIN SW_NODE SW_NODE_ESD VDD_PWR vssa2 power_stage
RR17 io_analog[3] SW_NODE sky130_fd_pr__res_generic_m4 W=25 L=1 m=1
RR18 io_analog[3] SW_NODE sky130_fd_pr__res_generic_m3 W=25 L=1 m=1
RR19 io_analog[3] SW_NODE sky130_fd_pr__res_generic_m5 W=25 L=1 m=1
RR20 io_analog[2] SW_NODE sky130_fd_pr__res_generic_m4 W=25 L=1 m=1
RR21 io_analog[2] SW_NODE sky130_fd_pr__res_generic_m3 W=25 L=1 m=1
RR22 io_analog[2] SW_NODE sky130_fd_pr__res_generic_m5 W=25 L=1 m=1
RR23 io_analog[1] SW_NODE sky130_fd_pr__res_generic_m4 W=25 L=1 m=1
RR24 io_analog[1] SW_NODE sky130_fd_pr__res_generic_m3 W=25 L=1 m=1
RR25 io_analog[1] SW_NODE sky130_fd_pr__res_generic_m5 W=25 L=1 m=1
RR14 io_analog[10] vssa2 sky130_fd_pr__res_generic_m4 W=25 L=1 m=1
RR15 io_analog[10] vssa2 sky130_fd_pr__res_generic_m3 W=25 L=1 m=1
RR16 io_analog[10] vssa2 sky130_fd_pr__res_generic_m5 W=25 L=1 m=1
RR26 io_analog[9] vssa2 sky130_fd_pr__res_generic_m4 W=25 L=1 m=1
RR27 io_analog[9] vssa2 sky130_fd_pr__res_generic_m3 W=25 L=1 m=1
RR28 io_analog[9] vssa2 sky130_fd_pr__res_generic_m5 W=25 L=1 m=1
RR29 io_analog[8] vssa2 sky130_fd_pr__res_generic_m4 W=25 L=1 m=1
RR30 io_analog[8] vssa2 sky130_fd_pr__res_generic_m3 W=25 L=1 m=1
RR31 io_analog[8] vssa2 sky130_fd_pr__res_generic_m5 W=25 L=1 m=1
RR32 io_analog[0] vssa2 sky130_fd_pr__res_generic_m4 W=25 L=1 m=1
RR33 io_analog[0] vssa2 sky130_fd_pr__res_generic_m3 W=25 L=1 m=1
RR34 io_analog[0] vssa2 sky130_fd_pr__res_generic_m5 W=25 L=1 m=1
RR10 VDD_PWR io_clamp_high[0] sky130_fd_pr__res_generic_m3 W=11 L=1 m=1
RR11 vssa2 io_clamp_low[0] sky130_fd_pr__res_generic_m3 W=11 L=1 m=1
RR4 VDD_PWR io_clamp_high[2] sky130_fd_pr__res_generic_m3 W=11 L=1 m=1
RR5 vssa2 io_clamp_low[2] sky130_fd_pr__res_generic_m3 W=11 L=1 m=1
RR8 VDD_PWR io_clamp_high[1] sky130_fd_pr__res_generic_m3 W=11 L=1 m=1
RR9 vssa2 io_clamp_low[1] sky130_fd_pr__res_generic_m3 W=11 L=1 m=1
RR6 io_analog[4] VDD_PWR sky130_fd_pr__res_generic_m4 W=25 L=1 m=1
RR7 io_analog[4] VDD_PWR sky130_fd_pr__res_generic_m3 W=25 L=1 m=1
RR12 io_analog[4] VDD_PWR sky130_fd_pr__res_generic_m5 W=25 L=1 m=1
RR13 io_analog[4] VDD_PWR sky130_fd_pr__res_generic_m4 W=25 L=1 m=1
RR35 io_analog[4] VDD_PWR sky130_fd_pr__res_generic_m3 W=25 L=1 m=1
RR36 io_analog[4] VDD_PWR sky130_fd_pr__res_generic_m5 W=25 L=1 m=1
RR37 io_analog[5] VDD_PWR sky130_fd_pr__res_generic_m4 W=25 L=1 m=1
RR38 io_analog[5] VDD_PWR sky130_fd_pr__res_generic_m3 W=25 L=1 m=1
RR39 io_analog[5] VDD_PWR sky130_fd_pr__res_generic_m5 W=25 L=1 m=1
RR40 io_analog[5] VDD_PWR sky130_fd_pr__res_generic_m4 W=25 L=1 m=1
RR41 io_analog[5] VDD_PWR sky130_fd_pr__res_generic_m3 W=25 L=1 m=1
RR42 io_analog[5] VDD_PWR sky130_fd_pr__res_generic_m5 W=25 L=1 m=1
RR43 io_analog[6] VDD_PWR sky130_fd_pr__res_generic_m4 W=25 L=1 m=1
RR44 io_analog[6] VDD_PWR sky130_fd_pr__res_generic_m3 W=25 L=1 m=1
RR45 io_analog[6] VDD_PWR sky130_fd_pr__res_generic_m5 W=25 L=1 m=1
RR46 io_analog[6] VDD_PWR sky130_fd_pr__res_generic_m4 W=25 L=1 m=1
RR47 io_analog[6] VDD_PWR sky130_fd_pr__res_generic_m3 W=25 L=1 m=1
RR48 io_analog[6] VDD_PWR sky130_fd_pr__res_generic_m5 W=25 L=1 m=1
x5 vdda2 vssa2 gpio_analog[12] esd_cell
x6 vdda2 vssa2 gpio_analog[13] esd_cell
x7 vdda2 vssa2 gpio_analog[11] esd_cell
x8 vdda2 vssa2 gpio_analog[17] esd_cell
x9 vdda2 vssa2 gpio_analog[16] esd_cell
x10 vdda2 vssa2 gpio_analog[15] esd_cell
x11 vdda2 vssa2 gpio_analog[14] esd_cell
RR1 io_analog[7] vssa2 sky130_fd_pr__res_generic_m4 W=25 L=1 m=1
RR2 io_analog[7] vssa2 sky130_fd_pr__res_generic_m3 W=25 L=1 m=1
RR3 io_analog[7] vssa2 sky130_fd_pr__res_generic_m5 W=25 L=1 m=1
x4 gpio_analog[14] gpio_analog[0] timeout_int vssa2 vdda2 oscillator
**** begin user architecture code


.include /usr/share/pdk/sky130A/libs.ref/sky130_fd_sc_hvl/spice/sky130_fd_sc_hvl.spice


**** end user architecture code
.ends

* expanding   symbol:  analog_subsystem.sym # of pins=15
* sym_path: /home/wbraun/projects/Open-PMIC-tapeout/xschem/analog_subsystem.sym
* sch_path: /home/wbraun/projects/Open-PMIC-tapeout/xschem/analog_subsystem.sch
.subckt analog_subsystem  CYCLE_END IBIAS IMON IOC ISLOPE OVERCURRENT SENSE_FET SENSE_FET_KELVIN
+ SW_NODE TIMEOUT VCOMP VDD VFB VREF VSS
*.iopin CYCLE_END
*.iopin IBIAS
*.iopin IMON
*.iopin IOC
*.iopin ISLOPE
*.iopin OVERCURRENT
*.iopin SENSE_FET
*.iopin SENSE_FET_KELVIN
*.iopin SW_NODE
*.iopin TIMEOUT
*.iopin VCOMP
*.iopin VDD
*.iopin VFB
*.iopin VREF
*.iopin VSS
x3 VDD VSS BIAS_CMP ISLOPE ISENSE VCOMP TIMEOUT CYCLE_END BIAS_CMP2 IOC OVERCURRENT BIAS_SHIFT
+ modulator
x1 VREF VFB VCOMP VDD VSS BIAS_OPA_P folded_cascode_p_in
x2 VDD VSS SW_NODE SENSE_FET BIAS_OPA_N IMON ISENSE SENSE_FET_KELVIN current_sense
x4 VDD VSS IBIAS BIAS_OPA_N BIAS_OPA_P BIAS_CMP BIAS_CMP2 BIAS_SHIFT bias_distribution
.ends


* expanding   symbol:  switch_control.sym # of pins=19
* sym_path: /home/wbraun/projects/Open-PMIC-tapeout/xschem/switch_control.sym
* sch_path: /home/wbraun/projects/Open-PMIC-tapeout/xschem/switch_control.sch
.subckt switch_control  CYCLE_END NMOS_DRV NMOS_DRV_N NMOS_DT NMOS_VAL OC_EN OVERCURRENT PMOS_DRV
+ PMOS_DRV_N PMOS_DT PMOS_VAL SW_EN SW_OVERRIDE TIMEOUT_EXT TIMEOUT_INT TIMEOUT_OUT TIMEOUT_SEL vdd vss
*.ipin CYCLE_END
*.ipin NMOS_DRV
*.ipin NMOS_DRV_N
*.ipin NMOS_DT
*.ipin NMOS_VAL
*.ipin OC_EN
*.ipin OVERCURRENT
*.ipin PMOS_DRV
*.ipin PMOS_DRV_N
*.ipin PMOS_DT
*.ipin PMOS_VAL
*.ipin SW_EN
*.ipin SW_OVERRIDE
*.ipin TIMEOUT_EXT
*.ipin TIMEOUT_INT
*.ipin TIMEOUT_OUT
*.ipin TIMEOUT_SEL
*.ipin vdd
*.ipin vss
x2 NMOS_DLY_IN vss vss vdd vdd net5 sky130_fd_sc_hvl__inv_1
x18 net7 vss vss vdd vdd net6 sky130_fd_sc_hvl__inv_1
x8 SW_EN LS_CTRL vss vss vdd vdd net50 sky130_fd_sc_hvl__and2_1
x10 N_DLY_MID vss vss vdd vdd net19 sky130_fd_sc_hvl__inv_1
x12 net18 vss vss vdd vdd net17 sky130_fd_sc_hvl__inv_1
x24 net16 vss vss vdd vdd net15 sky130_fd_sc_hvl__inv_1
x26 net19 vss vss vdd vdd net18 sky130_fd_sc_hvl__inv_1
x27 net17 vss vss vdd vdd net16 sky130_fd_sc_hvl__inv_1
x28 net25 vss vss vdd vdd net24 sky130_fd_sc_hvl__inv_1
x29 net23 vss vss vdd vdd net22 sky130_fd_sc_hvl__inv_1
x30 net21 vss vss vdd vdd net20 sky130_fd_sc_hvl__inv_1
x31 net20 vss vss vdd vdd net26 sky130_fd_sc_hvl__inv_4
x32 net24 vss vss vdd vdd net23 sky130_fd_sc_hvl__inv_1
x33 net22 vss vss vdd vdd net21 sky130_fd_sc_hvl__inv_1
x34 net14 PMOS_VAL SW_OVERRIDE vss vss vdd vdd PMOS_DLY_IN sky130_fd_sc_hvl__mux2_1
x25 net15 vss vss vdd vdd net25 sky130_fd_sc_hvl__inv_1
x14 PMOS_DLY_IN vss vss vdd vdd net31 sky130_fd_sc_hvl__inv_1
x35 net49 P_DLY_M PMOS_DT vss vss vdd vdd net54 sky130_fd_sc_hvl__mux2_1
x36 net30 vss vss vdd vdd net29 sky130_fd_sc_hvl__inv_1
x37 net28 vss vss vdd vdd net27 sky130_fd_sc_hvl__inv_1
x38 net31 vss vss vdd vdd net30 sky130_fd_sc_hvl__inv_1
x39 net29 vss vss vdd vdd net28 sky130_fd_sc_hvl__inv_1
x40 net37 vss vss vdd vdd net36 sky130_fd_sc_hvl__inv_1
x41 net35 vss vss vdd vdd net34 sky130_fd_sc_hvl__inv_1
x42 net33 vss vss vdd vdd net32 sky130_fd_sc_hvl__inv_1
x43 net32 vss vss vdd vdd P_DLY_M sky130_fd_sc_hvl__inv_4
x44 net36 vss vss vdd vdd net35 sky130_fd_sc_hvl__inv_1
x45 net34 vss vss vdd vdd net33 sky130_fd_sc_hvl__inv_1
x46 net27 vss vss vdd vdd net37 sky130_fd_sc_hvl__inv_1
x47 P_DLY_M vss vss vdd vdd net42 sky130_fd_sc_hvl__inv_1
x48 net41 vss vss vdd vdd net40 sky130_fd_sc_hvl__inv_1
x49 net39 vss vss vdd vdd net38 sky130_fd_sc_hvl__inv_1
x50 net42 vss vss vdd vdd net41 sky130_fd_sc_hvl__inv_1
x51 net40 vss vss vdd vdd net39 sky130_fd_sc_hvl__inv_1
x52 net48 vss vss vdd vdd net47 sky130_fd_sc_hvl__inv_1
x53 net46 vss vss vdd vdd net45 sky130_fd_sc_hvl__inv_1
x54 net44 vss vss vdd vdd net43 sky130_fd_sc_hvl__inv_1
x55 net43 vss vss vdd vdd net49 sky130_fd_sc_hvl__inv_4
x56 net47 vss vss vdd vdd net46 sky130_fd_sc_hvl__inv_1
x57 net45 vss vss vdd vdd net44 sky130_fd_sc_hvl__inv_1
x58 net38 vss vss vdd vdd net48 sky130_fd_sc_hvl__inv_1
x3 SW_EN HS_CTRL vss vss vdd vdd net14 sky130_fd_sc_hvl__nand2_1
x9 net50 NMOS_VAL SW_OVERRIDE vss vss vdd vdd NMOS_DLY_IN sky130_fd_sc_hvl__mux2_1
x19 net6 vss vss vdd vdd N_DLY_MID sky130_fd_sc_hvl__inv_4
x17 net9 vss vss vdd vdd net8 sky130_fd_sc_hvl__inv_1
x7 net5 vss vss vdd vdd net4 sky130_fd_sc_hvl__inv_1
x1 net26 N_DLY_MID NMOS_DT vss vss vdd vdd net51 sky130_fd_sc_hvl__mux2_1
x15 net11 vss vss vdd vdd net10 sky130_fd_sc_hvl__inv_1
x6 net2 vss vss vdd vdd net1 sky130_fd_sc_hvl__inv_1
x13 net13 LS_CTRL vss vss vdd vdd HS_CTRL sky130_fd_sc_hvl__nor2_1
x16 TIMEOUT HS_CTRL vss vss vdd vdd LS_CTRL sky130_fd_sc_hvl__nor2_1
x59 net51 NMOS_DLY_IN vss vss vdd vdd net52 sky130_fd_sc_hvl__and2_1
x60 net54 PMOS_DLY_IN vss vss vdd vdd net53 sky130_fd_sc_hvl__or2_1
x11 net3 vss vss vdd vdd net2 sky130_fd_sc_hvl__inv_1
x4 net4 vss vss vdd vdd net3 sky130_fd_sc_hvl__inv_1
x61 net53 vss vss vdd vdd net55 sky130_fd_sc_hvl__inv_1
x63 TIMEOUT_EXT TIMEOUT_INT TIMEOUT_SEL vss vss vdd vdd TIMEOUT sky130_fd_sc_hvl__mux2_1
x64 net55 vss vss vdd vdd PMOS_DRV sky130_fd_sc_hvl__inv_4
x20 net10 vss vss vdd vdd net9 sky130_fd_sc_hvl__inv_1
x22 net12 net58 vss vss vdd vdd net13 sky130_fd_sc_hvl__and2_1
x5 net1 vss vss vdd vdd net11 sky130_fd_sc_hvl__inv_1
x65 TIMEOUT vss vss vdd vdd net56 sky130_fd_sc_hvl__inv_1
x66 net56 vss vss vdd vdd TIMEOUT_OUT sky130_fd_sc_hvl__inv_4
x67 net53 vss vss vdd vdd PMOS_DRV_N sky130_fd_sc_hvl__inv_4
x68 net52 vss vss vdd vdd net57 sky130_fd_sc_hvl__inv_1
x69 net52 vss vss vdd vdd NMOS_DRV_N sky130_fd_sc_hvl__inv_4
x62 net57 vss vss vdd vdd NMOS_DRV sky130_fd_sc_hvl__inv_4
x70 CYCLE_END net59 vss vss vdd vdd net58 sky130_fd_sc_hvl__or2_1
x71 OVERCURRENT OC_EN vss vss vdd vdd net59 sky130_fd_sc_hvl__and2_1
x21 net8 vss vss vdd vdd net7 sky130_fd_sc_hvl__inv_1
x23 TIMEOUT vss vss vdd vdd net12 sky130_fd_sc_hvl__inv_1
XM1 vdd vss vdd vdd sky130_fd_pr__pfet_g5v0d10v5 L=1 W=36 nf=1 ad='int((nf+1)/2) * W/nf * 0.29' as='int((nf+2)/2) * W/nf * 0.29'
+ pd='2*int((nf+1)/2) * (W/nf + 0.29)' ps='2*int((nf+2)/2) * (W/nf + 0.29)' nrd='0.29 / W' nrs='0.29 / W'
+ sa=0 sb=0 sd=0 mult=1 m=1 
XM3 vss vdd vss vss sky130_fd_pr__nfet_g5v0d10v5 L=1 W=27 nf=1 ad='int((nf+1)/2) * W/nf * 0.29' as='int((nf+2)/2) * W/nf * 0.29'
+ pd='2*int((nf+1)/2) * (W/nf + 0.29)' ps='2*int((nf+2)/2) * (W/nf + 0.29)' nrd='0.29 / W' nrs='0.29 / W'
+ sa=0 sb=0 sd=0 mult=1 m=1 
x72 TIMEOUT_EXT vss vss vdd vdd sky130_fd_sc_hvl__diode_2
x73 TIMEOUT_INT vss vss vdd vdd sky130_fd_sc_hvl__diode_2
x74 TIMEOUT_SEL vss vss vdd vdd sky130_fd_sc_hvl__diode_2
x76 PMOS_DT vss vss vdd vdd sky130_fd_sc_hvl__diode_2
x78 NMOS_DT vss vss vdd vdd sky130_fd_sc_hvl__diode_2
x79 CYCLE_END vss vss vdd vdd sky130_fd_sc_hvl__diode_2
x80 OVERCURRENT vss vss vdd vdd sky130_fd_sc_hvl__diode_2
x81 OC_EN vss vss vdd vdd sky130_fd_sc_hvl__diode_2
x82 SW_OVERRIDE vss vss vdd vdd sky130_fd_sc_hvl__diode_2
x83 PMOS_VAL vss vss vdd vdd sky130_fd_sc_hvl__diode_2
x84 NMOS_VAL vss vss vdd vdd sky130_fd_sc_hvl__diode_2
x85 SW_EN vss vss vdd vdd sky130_fd_sc_hvl__diode_2
.ends

