* simulation of inv
.control
  dc v1 0 3.3 0.01
  write inv.raw i(v2) v(out)
.endc

* two simple MOS transistors

.MODEL N10L5 NMOS
+ LEVEL=6 TPG=1
+ KC=3.8921e-05 NC=1.1739 KV=0.91602 NV=0.87225
+ LAMBDA0=0.013333 LAMBDA1=0.0046901 VT0=0.69486 GAMMA=0.60309 PHI=1
+ TOX=1.9800000E-08             LD=0.1U           NSUB=4.9999999E+16
+ NSS=0.0000000E+00
+ CJ=4.091E-4        MJ=0.307           PB=1.0
+ CJSW=3.078E-10     MJSW=1.0E-2        
+ CGSO=3.93E-10      CGDO=3.93E-10

.MODEL P12L5 PMOS
+ LEVEL=6 TPG=-1
+ KC=6.42696E-06 NC=1.6536 KV=0.92145 NV=0.88345
+ LAMBDA0=0.018966 LAMBDA1=0.0084012 VT0=-0.60865 GAMMA=0.89213 PHI=1
+ TOX=1.9800000E-08             LD=0.28U           NSUB=4.9999999E+17
+ NSS=0.0000000E+00
+ CJ=6.852E-4        MJ=0.429           PB=1.0
+ CJSW=5.217E-10     MJSW=0.351
+ CGSO=7.29E-10      CGDO=7.29E-10


* Spice netlister for gnetlist
V2 1 0 DC 3.3V
MQ2 out in 0 0 N10L5  L=$M1_Length W=$M1_Width
V1 in 0 dc 1.65
MQ1 out in 1 1 P12L5 L=$M2_Length W=$M2_Width
.END
