* NGSPICE file created from inverter_lvs.ext - technology: sky130A

.subckt inverter_lvs A Y VDD VSS
X0 VDD A Y VDD sky130_fd_pr__pfet_01v8 ad=2.772e+12p pd=2.676e+07u as=2.352e+12p ps=2.24e+07u w=840000u l=150000u M=20
X1 Y A VSS VSS sky130_fd_pr__nfet_01v8 ad=2.94e+12p pd=2.66e+07u as=3.465e+12p ps=3.18e+07u w=1.05e+06u l=150000u M=20
.ends

